Version 4
SHEET 1 912 680
WIRE 368 -80 288 -80
WIRE -16 -32 -208 -32
WIRE 368 -32 368 -80
WIRE -208 96 -208 -32
WIRE 288 160 288 -80
WIRE 288 160 224 160
WIRE -16 176 -16 -32
WIRE 160 176 -16 176
WIRE 368 192 368 48
WIRE 368 192 224 192
WIRE -16 208 -16 176
WIRE 160 208 96 208
WIRE 320 224 224 224
WIRE 448 224 320 224
WIRE 96 384 96 208
WIRE 192 384 96 384
WIRE 320 384 320 224
WIRE 320 384 272 384
WIRE 96 432 96 384
WIRE -208 560 -208 176
WIRE -16 560 -16 288
WIRE -16 560 -208 560
WIRE 96 560 96 512
WIRE 96 560 -16 560
WIRE 368 560 368 192
WIRE 368 560 96 560
WIRE 368 608 368 560
FLAG 368 608 0
DATAFLAG 368 -80 ""
SYMBOL OpAmps\\TL084 192 192 R0
SYMATTR InstName U1
SYMBOL res -32 192 R0
SYMATTR InstName R1
SYMATTR Value 0.33K
SYMBOL res 80 416 R0
SYMATTR InstName R2
SYMATTR Value {R_2}
SYMBOL res 288 368 R90
WINDOW 0 0 56 VBottom 2
WINDOW 3 32 56 VTop 2
SYMATTR InstName R3
SYMATTR Value {R_F}
SYMBOL voltage -208 80 R0
SYMATTR InstName V1
SYMATTR Value 0.132V
SYMBOL voltage 368 -48 R0
SYMATTR InstName V2
SYMATTR Value 5V
TEXT 480 80 Left 2 !.step param R_F 100 100k 100
TEXT 480 112 Left 2 !.param R_2=19*R_F
TEXT 480 144 Left 2 !.op
